Version 4
SHEET 1 880 736
WIRE -384 -224 -432 -224
WIRE -256 -224 -304 -224
WIRE -208 -224 -256 -224
WIRE -16 -224 -128 -224
WIRE 544 -224 272 -224
WIRE 128 -176 128 -256
WIRE 368 -96 368 -128
WIRE -160 -80 -160 -112
WIRE 272 -80 272 -224
WIRE 352 -80 272 -80
WIRE -256 -64 -256 -224
WIRE -176 -64 -256 -64
WIRE 544 -64 544 -224
WIRE 544 -64 416 -64
WIRE 624 -64 544 -64
WIRE -16 -48 -16 -224
WIRE -16 -48 -112 -48
WIRE 16 -48 -16 -48
WIRE 128 -48 128 -96
WIRE 128 -48 80 -48
WIRE 352 -48 128 -48
WIRE -576 -32 -688 -32
WIRE -176 -32 -496 -32
WIRE 368 -16 368 -32
WIRE 400 -16 400 -32
WIRE 400 -16 368 -16
WIRE 368 0 368 -16
WIRE -688 16 -688 -32
WIRE 128 16 128 -48
WIRE -160 32 -160 -16
WIRE -1136 128 -1136 96
WIRE -1040 128 -1040 96
WIRE -944 128 -944 96
WIRE -128 128 -128 -16
WIRE -688 144 -688 96
WIRE 128 176 128 96
WIRE -1136 240 -1136 208
WIRE -1040 240 -1040 208
WIRE -944 240 -944 208
FLAG -688 144 0
FLAG -1136 96 3V3
FLAG -1136 240 0
FLAG 128 -256 3V3
FLAG 128 176 0
FLAG -1040 96 1V5
FLAG -1040 240 0
FLAG -944 96 n1V5
FLAG -944 240 0
FLAG -432 -224 0
FLAG -160 -112 1V5
FLAG -160 32 n1V5
FLAG 368 -128 3V3
FLAG 368 0 0
FLAG 624 -64 vout
FLAG -688 -32 vin
FLAG -128 128 0
SYMBOL voltage -688 0 R0
WINDOW 123 24 124 Left 2
WINDOW 39 0 0 Left 0
SYMATTR Value2 AC 1
SYMATTR InstName V1
SYMATTR Value SINE(0 300m 1k)
SYMBOL res -480 -48 R90
WINDOW 0 0 56 VBottom 2
WINDOW 3 32 56 VTop 2
SYMATTR InstName R1
SYMATTR Value {rin}
SYMBOL cap 80 -64 R90
WINDOW 0 0 32 VBottom 2
WINDOW 3 32 32 VTop 2
SYMATTR InstName C1
SYMATTR Value {c_dcb}
SYMBOL res 112 -192 R0
SYMATTR InstName R2
SYMATTR Value {r1b}
SYMBOL res 112 0 R0
SYMATTR InstName R3
SYMATTR Value {r2b}
SYMBOL voltage -1136 112 R0
WINDOW 123 0 0 Left 0
WINDOW 39 0 0 Left 0
SYMATTR InstName V2
SYMATTR Value 3.3
SYMBOL voltage -1040 112 R0
WINDOW 123 0 0 Left 0
WINDOW 39 0 0 Left 0
SYMATTR InstName V3
SYMATTR Value 1.5
SYMBOL voltage -944 112 R0
WINDOW 123 0 0 Left 0
WINDOW 39 0 0 Left 0
SYMATTR InstName V4
SYMATTR Value -1.5
SYMBOL res -112 -240 R90
WINDOW 0 0 56 VBottom 2
WINDOW 3 32 56 VTop 2
SYMATTR InstName R4
SYMATTR Value {rf}
SYMBOL res -400 -208 R270
WINDOW 0 32 56 VTop 2
WINDOW 3 0 56 VBottom 2
SYMATTR InstName R5
SYMATTR Value {rg}
SYMBOL Opamps\\MAX4488 -144 -32 R0
SYMATTR InstName U3
SYMBOL Opamps\\MAX4488 384 -48 R0
SYMATTR InstName U1
TEXT -1160 -304 Left 2 ;Input: 0 - 300mV\nOutput: 0 - 3.3V\nHPF Filter Cutoff Frequency: 100Hz\nMax Source Impedance: 1MEG\n \nEngineer: J. Gier\nDate: 4/2/2022
TEXT -768 -144 Left 2 ;Guitar Pickup
TEXT -1160 -104 Left 2 !.include line_amp.txt
TEXT -1160 -80 Left 2 !.tran 1
TEXT -1160 -56 Left 2 !;.ac dec 100 1 1meg
RECTANGLE Normal -384 176 -768 -128 2
