Version 4
SHEET 1 880 736
WIRE -144 -80 -192 -80
WIRE -16 -80 -64 -80
WIRE 32 -80 -16 -80
WIRE 144 -80 112 -80
WIRE 496 -32 496 -112
WIRE 80 64 80 32
WIRE -16 80 -16 -80
WIRE 48 80 -16 80
WIRE 144 96 144 -80
WIRE 144 96 112 96
WIRE 384 96 144 96
WIRE 496 96 496 48
WIRE 496 96 448 96
WIRE 640 96 496 96
WIRE -528 112 -640 112
WIRE 48 112 -448 112
WIRE -640 160 -640 112
WIRE 496 160 496 96
WIRE 80 176 80 128
WIRE -640 288 -640 240
WIRE 496 320 496 240
WIRE -640 496 -640 464
WIRE -544 496 -544 464
WIRE -448 496 -448 464
WIRE -640 608 -640 576
WIRE -544 608 -544 576
WIRE -448 608 -448 576
FLAG -640 288 0
FLAG -640 464 3V3
FLAG -640 608 0
FLAG 496 -112 3V3
FLAG 496 320 0
FLAG -544 464 1V5
FLAG -544 608 0
FLAG -448 464 n1V5
FLAG -448 608 0
FLAG -192 -80 0
FLAG 80 32 1V5
FLAG 80 176 n1V5
SYMBOL voltage -640 144 R0
WINDOW 123 0 0 Left 0
WINDOW 39 0 0 Left 0
SYMATTR InstName V1
SYMATTR Value AC 1
SYMBOL res -432 96 R90
WINDOW 0 0 56 VBottom 2
WINDOW 3 32 56 VTop 2
SYMATTR InstName R1
SYMATTR Value {rin}
SYMBOL cap 448 80 R90
WINDOW 0 0 32 VBottom 2
WINDOW 3 32 32 VTop 2
SYMATTR InstName C1
SYMATTR Value {c_dcb}
SYMBOL res 480 -48 R0
SYMATTR InstName R2
SYMATTR Value {r1b}
SYMBOL res 480 144 R0
SYMATTR InstName R3
SYMATTR Value {r2b}
SYMBOL voltage -640 480 R0
WINDOW 123 0 0 Left 0
WINDOW 39 0 0 Left 0
SYMATTR InstName V2
SYMATTR Value 3.3
SYMBOL voltage -544 480 R0
WINDOW 123 0 0 Left 0
WINDOW 39 0 0 Left 0
SYMATTR InstName V3
SYMATTR Value 1.5
SYMBOL voltage -448 480 R0
WINDOW 123 0 0 Left 0
WINDOW 39 0 0 Left 0
SYMATTR InstName V4
SYMATTR Value -1.5
SYMBOL Opamps\\UniversalOpamp 80 96 R0
SYMATTR InstName U2
SYMBOL res 128 -96 R90
WINDOW 0 0 56 VBottom 2
WINDOW 3 32 56 VTop 2
SYMATTR InstName R4
SYMATTR Value {rf}
SYMBOL res -160 -64 R270
WINDOW 0 32 56 VTop 2
WINDOW 3 0 56 VBottom 2
SYMATTR InstName R5
SYMATTR Value {rg}
TEXT -720 -320 Left 2 ;Input: 0 - 300mV\nOutput: 0 - 3.3V\nFilter Cutoff Frequency: \nMax Source Impedance: 1MEG\n \nEngineer: J. Gier\nDate: 4/2/2022
TEXT -720 0 Left 2 ;Guitar Pickup
TEXT -728 672 Left 2 !.include line_amp.txt
TEXT -728 696 Left 2 !;tran 1
TEXT -728 720 Left 2 !.ac dec 100 1 1meg
RECTANGLE Normal -336 320 -720 16 2
