Version 4
SHEET 1 880 712
WIRE -64 -32 -64 -112
WIRE -528 96 -640 96
WIRE -176 96 -448 96
WIRE -64 96 -64 48
WIRE -64 96 -112 96
WIRE 80 96 -64 96
WIRE -640 144 -640 96
WIRE -64 160 -64 96
WIRE -640 272 -640 224
WIRE -64 320 -64 240
WIRE -640 496 -640 464
WIRE -640 608 -640 576
FLAG -640 272 0
FLAG -640 464 +3.3
FLAG -640 608 0
FLAG -64 -112 +3.3
FLAG -64 320 0
SYMBOL voltage -640 128 R0
WINDOW 123 0 0 Left 0
WINDOW 39 0 0 Left 0
SYMATTR InstName V1
SYMATTR Value SINE(0 300m 1k)
SYMBOL res -432 80 R90
WINDOW 0 0 56 VBottom 2
WINDOW 3 32 56 VTop 2
SYMATTR InstName R1
SYMATTR Value 1Meg
SYMBOL cap -112 80 R90
WINDOW 0 0 32 VBottom 2
WINDOW 3 32 32 VTop 2
SYMATTR InstName C1
SYMATTR Value {c_dcb}
SYMBOL res -80 -48 R0
SYMATTR InstName R2
SYMATTR Value {r1b}
SYMBOL res -80 144 R0
SYMATTR InstName R3
SYMATTR Value {r2b}
SYMBOL voltage -640 480 R0
WINDOW 123 0 0 Left 0
WINDOW 39 0 0 Left 0
SYMATTR InstName V2
SYMATTR Value 3.3
TEXT -720 -320 Left 2 ;Input: 0 - 300mV\nOutput: 0 - 3.3V\nFilter Cutoff Frequency: \nMax Source Impedance: 1MEG\n \nEngineer: J. Gier\nDate: 4/2/2022
TEXT -720 -16 Left 2 ;Guitar Pickup
TEXT -728 672 Left 2 !.include line_amp.txt
TEXT -728 696 Left 2 !.tran 1
RECTANGLE Normal -304 320 -720 0 2
